%nprocshared=4
%mem=4GB
%chk=C:\Users\jared\Desktop\spectras\4_5-IMINE-PYRENE\ethanol_solvent\SOLVENT_4_5-IMINE-PYRENE.chk
# freq=raman b3lyp/6-311++g(d,p) scrf=(cpcm,solvent=ethanol)
geom=connectivity

Title Card Required

0 1
 C                 -3.53674918   -0.47657271   -0.00000048
 C                 -2.82993087   -1.66449782   -0.00000071
 C                 -1.41963817   -1.66336161   -0.00000039
 C                 -0.72205201   -0.42249892    0.00000016
 C                 -1.46184059    0.78722226    0.00000062
 C                 -2.85328085    0.74420990    0.00000018
 C                 -0.67886062   -2.89246982   -0.00000057
 C                  0.72205201   -0.42249892    0.00000033
 C                  1.41963817   -1.66336161    0.00000021
 C                  0.67886062   -2.89246982   -0.00000023
 C                  2.82993087   -1.66449782    0.00000043
 H                  3.35342019   -2.61443919    0.00000032
 C                  3.53674918   -0.47657271    0.00000064
 C                  2.85328085    0.74420990    0.00000055
 C                  1.46184059    0.78722226    0.00000045
 C                  0.76563062    2.09723920    0.00000018
 C                 -0.76563062    2.09723920    0.00000178
 H                 -1.22998803   -3.82640702   -0.00000101
 H                 -4.62041350   -0.48646296   -0.00000078
 H                 -3.35342019   -2.61443919   -0.00000123
 H                 -3.40231114    1.67641513    0.00000044
 H                  1.22998804   -3.82640702   -0.00000039
 H                  4.62041350   -0.48646296    0.00000080
 H                  3.40231114    1.67641513    0.00000064
 N                  1.46279558    3.16897835   -0.00000373
 H                  0.88680999    4.01242268   -0.00000506
 N                 -1.46279558    3.16897835    0.00000173
 H                 -0.88680999    4.01242268    0.00000139

 1 2 1.5 6 1.5 19 1.0
 2 3 1.5 20 1.0
 3 4 1.5 7 1.5
 4 5 1.5 8 1.5
 5 6 1.5 17 1.0
 6 21 1.0
 7 10 2.0 18 1.0
 8 9 1.5 15 1.5
 9 10 1.5 11 1.5
 10 22 1.0
 11 12 1.0 13 1.5
 12
 13 14 1.5 23 1.0
 14 15 1.5 24 1.0
 15 16 1.0
 16 17 1.0 25 2.0
 17 27 2.0
 18
 19
 20
 21
 22
 23
 24
 25 26 1.0
 26
 27 28 1.0
 28

