%nprocshared=4
%mem=4GB
%chk=C:\Users\jared\Desktop\spectras\4-ONE_5-IMINE-PYRENE\ethanol_solvent\ETHANOL-4-ONE_5-IMINE-PYRENE.chk
# freq=raman b3lyp/6-311++g(d,p) scrf=(cpcm,solvent=ethanol)
geom=connectivity

Title Card Required

0 1
 C                 -3.53067833   -0.50651839    0.00001203
 C                 -2.80438817   -1.68367941    0.00001003
 C                 -1.39320107   -1.67404227   -0.00000298
 C                 -0.70925313   -0.42801112   -0.00001598
 C                 -1.47254130    0.76875990   -0.00002498
 C                 -2.86252140    0.72180676   -0.00000498
 C                 -0.63778389   -2.89380728   -0.00000098
 C                  0.73567396   -0.40763498   -0.00001498
 C                  1.44740113   -1.63856000   -0.00000798
 C                  0.71981721   -2.87533216   -0.00000498
 C                  2.85779324   -1.61830186    0.00000003
 H                  3.39533837   -2.56061887    0.00000403
 C                  3.54774017   -0.42103271    0.00000803
 C                  2.84974600    0.79243031    0.00000803
 C                  1.46035790    0.81188118   -0.00000498
 H                 -1.17622984   -3.83535041    0.00000703
 H                 -4.61399041   -0.53441850    0.00002303
 H                 -3.31805311   -2.63949052    0.00002203
 H                 -3.40967653    1.65659478   -0.00001098
 H                  1.28184933   -3.80308017    0.00000003
 H                  4.63165925   -0.41764460    0.00001603
 H                  3.37797995    1.73750743    0.00001503
 N                  1.35471467    3.21559034    0.00001703
 H                  0.66514654    3.97525234    0.00000003
 O                 -1.39973553    3.14077707    0.00006003
 C                 -0.79639838    2.08219806   -0.00006598
 C                  0.73504573    2.10082721   -0.00000198

 1 2 2.0 6 1.5 17 1.0
 2 3 1.5 18 1.0
 3 4 1.5 7 1.5
 4 5 1.5 8 1.5
 5 6 1.5 26 1.0
 6 19 1.0
 7 10 2.0 16 1.0
 8 9 1.5 15 1.5
 9 10 1.5 11 1.5
 10 20 1.0
 11 12 1.0 13 2.0
 12
 13 14 1.5 21 1.0
 14 15 1.5 22 1.0
 15 27 1.0
 16
 17
 18
 19
 20
 21
 22
 23 24 1.0 27 2.0
 24
 25 26 2.0
 26 27 1.0
 27

